Circuit: * C:\users\tom\Documents\Projects\arb\1_hw\04_sim\analog.asc

WARNING: Less than two connections to node U2:105.  This node is used by R:U2:F.
WARNING: Less than two connections to node U1:105.  This node is used by R:U1:F.
Direct Newton iteration failed to find .op point.  (Use ".option noopiter" to skip.)
Starting Gmin stepping
Gmin = 10
vernier = 0.5
Gmin = 1.86414
vernier = 0.25
vernier = 0.125
vernier = 0.0625
vernier = 0.03125
Gmin = 1.79363
vernier = 0.015625
vernier = 0.0078125
vernier = 0.00390625
Gmin = 1.78143
vernier = 0.00520833
vernier = 0.00694444
Gmin = 1.75802
vernier = 0.00925925
Gmin = 1.72181
vernier = 0.0123457
vernier = 0.0164609
Gmin = 1.66273
vernier = 0.0219478
vernier = 0.0292638
Gmin = 1.57277
vernier = 0.0390184
Gmin = 1.44114
vernier = 0.0520245
vernier = 0.0693659
Gmin = 1.24499
vernier = 0.0924879
vernier = 0.046244
Gmin = 1.07285
vernier = 0.023122
vernier = 0.011561
Gmin = 1.04537
vernier = 0.00578049
vernier = 0.00770732
vernier = 0.00385366
Gmin = 1.03685
vernier = 0.00513821
vernier = 0.00256911
Gmin = 1.03021
vernier = 0.00342548
vernier = 0.00171274
vernier = 0.00228365
Gmin = 1.02618
vernier = 0.00114182
vernier = 0.00152243
Gmin = 1.02335
vernier = 0.000761216
Gmin = 1.02121
vernier = 0.00101495
vernier = 0.00135327
vernier = 0.000676636
Gmin = 1.01931
vernier = 0.000902182
vernier = 0.000451091
Gmin = 1.01811
vernier = 0.000601454
vernier = 0.000801939
vernier = 0.000400969
Gmin = 1.01697
vernier = 0.000534626
Gmin = 1.01575
vernier = 0.000712834
vernier = 0.000534626
vernier = 0.000400969
Gmin = 1.01511
vernier = 0.000534626
vernier = 0.000400969
vernier = 0.000534625
vernier = 0.000400969
Gmin = 1.0145
vernier = 0.000534625
vernier = 0.000400969
Gmin = 0
Gmin stepping failed

Starting source stepping with srcstepmethod=0
Source Step = 3.0303%
Source Step = 33.3333%
Source Step = 63.6364%
Source Step = 93.9394%
Source stepping succeeded in finding the operating point.

Heightened Def Con from 0.000131303 to 0.000131303

Date: Sat Oct 05 20:55:59 2024
Total elapsed time: 4.712 seconds.

tnom = 27
temp = 27
method = modified trap
totiter = 191569
traniter = 180535
tranpoints = 47808
accept = 33946
rejected = 13863
matrix size = 253
fillins = 515
solver = Normal
Thread vector: 9.6/7.1[5] 4.1/4.8[1] 2.2/3.6[1] 1.8/3.6[1]  2592/500
Matrix Compiler1: 36.50 KB object code size  9.8/3.8/[3.0]
Matrix Compiler2: 27.85 KB object code size  2.9/3.8/[2.7]

