Circuit: * C:\users\tom\Documents\Projects\arb\1_hw\04_sim\analog.asc

WARNING: Less than two connections to node 5V0.  This node is used by V1.
WARNING: Less than two connections to node N5V0.  This node is used by V2.
WARNING: Less than two connections to node N006.  This node is used by V7.
Direct Newton iteration failed to find .op point.  (Use ".option noopiter" to skip.)
Starting Gmin stepping
Increasing initial diagonal Gmin to 100
Gmin = 100
Gmin = 10.7374
Gmin = 1.15292
Gmin = 0.123794
Gmin = 0.0132923
Gmin = 0.00142725
Gmin = 0.00015325
Gmin = 1.6455e-005
Gmin = 1.76685e-006
Gmin = 1.89714e-007
Gmin = 2.03704e-008
Gmin = 2.18725e-009
Gmin = 2.34854e-010
Gmin = 2.52173e-011
Gmin = 2.70769e-012
Gmin = 2.90735e-013
Gmin = 0
Gmin stepping succeeded in finding the operating point.

Heightened Def Con from 0.000105095 to 0.000105095

Date: Sat Oct 12 18:34:51 2024
Total elapsed time: 5.545 seconds.

tnom = 27
temp = 27
method = modified trap
totiter = 1524534
traniter = 1523907
tranpoints = 493968
accept = 325807
rejected = 168162
matrix size = 27
fillins = 9
solver = Normal
Matrix Compiler1: 1.52 KB object code size  0.5/0.2/[0.2]
Matrix Compiler2: off  [0.3]/0.5/0.3

