Circuit: * C:\users\tom\Documents\Projects\arb\1_hw\04_sim\analog.asc

WARNING: Less than two connections to node 5V0.  This node is used by V1.
WARNING: Less than two connections to node N5V0.  This node is used by V2.
WARNING: Less than two connections to node 12V0.  This node is used by V3.
WARNING: Less than two connections to node N12V0.  This node is used by V4.
WARNING: Less than two connections to node NC_01.  This node is used by R5.
WARNING: Less than two connections to node N006.  This node is used by V7.
Direct Newton iteration failed to find .op point.  (Use ".option noopiter" to skip.)
Starting Gmin stepping
Gmin = 10
Gmin = 1.07374
Gmin = 0.115292
Gmin = 0.0123794
Gmin = 0.00132923
Gmin = 0.000142725
Gmin = 1.5325e-005
Gmin = 1.6455e-006
Gmin = 1.76685e-007
Gmin = 1.89714e-008
Gmin = 2.03704e-009
Gmin = 2.18725e-010
Gmin = 2.34854e-011
Gmin = 2.52173e-012
Gmin = 2.70769e-013
Gmin = 0
Gmin stepping succeeded in finding the operating point.


Date: Sat Oct 19 15:41:19 2024
Total elapsed time: 80.463 seconds.

tnom = 27
temp = 27
method = modified trap
totiter = 13400394
traniter = 13400018
tranpoints = 4400008
accept = 2800011
rejected = 1599997
matrix size = 32
fillins = 5
solver = Normal
Matrix Compiler1: 1.46 KB object code size  0.9/0.5/[0.4]
Matrix Compiler2: off
