LTspice 24.0.12 for Windows
Circuit: * C:\users\tom\Documents\Projects\arb\1_hw\04_sim\DAC.asc
Start Time: Mon Jan  6 23:11:37 2025
solver = Normal
Maximum thread count: 16
tnom = 27
temp = 27
method = modified trap
Direct Newton iteration for .op point succeeded.
Total elapsed time: 0.164 seconds.

